*Heading
** Job name: quart_pastille_avec_chemin_fissure Model name: Model-1
** Generated by: Abaqus/CAE Unofficial Packaging Version
*Preprint, echo=NO, model=NO, history=NO, contact=NO
**
** PARTS
**
*Part, name=Part-2
*Node
      1,           0., 0.0051500001
      2, 0.000188088423, 0.00514656398
      3, 0.000375925883, 0.00513626123
      4, 0.000563261739, 0.00511910487
      5, 0.000749845989, 0.00509511819
      6, 0.000935429765, 0.00506433332
      7, 0.00111976545, 0.00502679078
      8, 0.00130260689, 0.00498254085
      9, 0.00148371037, 0.00493164314
     10, 0.00166283408, 0.0048741647
     11, 0.00183973904, 0.00481018284
     12, 0.00201418926, 0.00473978277
     13, 0.00218595192, 0.00466305856
     14, 0.00235479791, 0.00458011217
     15, 0.00252050185, 0.00449105445
     16, 0.00268284278, 0.0043960046
     17, 0.00284160394, 0.00429508882
     18, 0.00299657346, 0.00418844214
     19, 0.00314754457, 0.00407620706
     20, 0.00329431612, 0.00395853259
** ... 244 like lines cut
*Element, type=CPS3T
  1,   1,   2,  46
  2,  46,  45,   1
  3,   2,   3,  47
  4,  47,  46,   2
  5,   3,   4,  48
  6,  48,  47,   3
  7,   4,   5,  49
  8,  49,  48,   4
  9,   5,   6,  50
 10,  50,  49,   5
 11,   6,   7,  51
 12,  51,  50,   6
 13,   7,   8,  52
 14,  52,  51,   7
 15,   8,   9,  53
 16,  53,  52,   8
 17,   9,  10,  54
 18,  54,  53,   9
 19,  10,  11,  55
 20,  55,  54,  10
** ... 410 like lines cut
*Nset, nset=Set-1b, generate
   1,  264,    1
*Elset, elset=Set-1b, generate
   1,  430,    1
** Section: Section-3
*Solid Section, elset=Set-1b, material=Material-3
,
*End Part
**
*Part, name=Part-3
*Node
 1, 0.0, 0.0
 2, 0.0, 0.000750000007
 3, 0.0, 0.000500000024
 4, 0.0, 0.000250000012
 5, 0.000176776695, 0.000176776695
 6, 0.000353553391, 0.000353553391
 7, 0.000530330057, 0.000530330057
 8, 0.000707106781, 0.000707106781
 9, 0.000750000007, 0.0
 10, 0.000500000024, 0.0
 11, 0.000250000012, 0.0
 12, 0.0, 0.00150000001
 13, 0.0, 0.00124999997
 14, 0.0, 0.00100000005
 15, 0.0, 0.00249999994
 16, 0.0, 0.0022499999
 17, 0.0, 0.00200000009
 18, 0.0, 0.00175000005
 19, 0.0, 0.00325000007
 20, 0.0, 0.00300000003
** ... 2230 like lines cut
*Element, type=CPS3T
 1, 127, 37, 38
 2, 125, 39, 108
 3, 126, 109, 49
 4, 99, 98, 55
 5, 205, 176, 204
 6, 96, 27, 28
 7, 119, 15, 16
 8, 164, 413, 152
 9, 128, 47, 48
 10, 414, 415, 50
 11, 160, 117, 118
 12, 95, 41, 40
 13, 134, 23, 116
 14, 416, 22, 417
 15, 418, 419, 29
 16, 420, 26, 421
 17, 422, 94, 423
 18, 172, 136, 424
 19, 100, 42, 25
 20, 93, 425, 426
** ... 730 like lines cut
*Element, type=COH2D4T
 751, 127, 38, 624, 623
 752, 37, 127, 636, 638
 753, 623, 625, 856, 855
 754, 637, 636, 776, 775
 755, 169, 776, 828, 827
 756, 829, 828, 855, 854
 757, 38, 37, 1509, 1508
 758, 536, 538, 638, 637
 759, 538, 537, 1504, 1503
 760, 1352, 1351, 1503, 1502
 761, 1351, 276, 1507, 1509
 762, 625, 624, 627, 626
 763, 628, 627, 1515, 1514
 764, 1354, 1353, 1508, 1507
 765, 1353, 293, 1513, 1515
 766, 39, 125, 626, 628
 767, 125, 108, 832, 831
 768, 635, 634, 831, 830
 769, 634, 168, 854, 856
 770, 108, 39, 542, 541
** ... 1069 like lines cut
*Nset, nset=Set-1, generate
 1, 2250, 1
*Elset, elset=Set-1, generate
 1, 750, 1
** Section: Section-1
*Solid Section, elset=Set-1, material=Material-1
,
*Nset, nset=Set-2, generate
 1, 2250, 1
*Elset, elset=Set-2, generate
 751, 1125, 1
*Elset, elset=Set-2, generate
 1127, 1839, 1
** Section: Section-2
*Cohesive Section, elset=Set-2, material=Material-2, response=TRACTION SEPARATION
,
*Nset, nset=Set-2b
 73, 461, 1337, 1336
*Elset, elset=Set-2b
 1126
** Section: Section-2b
*Cohesive Section, elset=Set-2b, material=Material-2b, response=TRACTION SEPARATION
,
*End Part
**  
**
** ASSEMBLY
**
*Assembly, name=Assembly
**  
*Instance, name=Part-1-1, part=Part-3
*End Instance
**
*Instance, name=Part-2-1, part=Part-2
*End Instance
**  
*Nset, nset=Set-3, instance=Part-1-1, generate
 1, 2250, 1
*Elset, elset=Set-3, instance=Part-1-1, generate
 1, 1839, 1
**
*Nset, nset=Set-7, instance=Part-1-1, generate
 1, 2250, 1
*Elset, elset=Set-7, instance=Part-1-1, generate
 1, 750, 1
**
*Nset, nset=Set-8, instance=Part-2-1, generate
 1, 264,     1
*Elset, elset=Set-8, instance=Part-2-1, generate
 1, 430,     1
**
*Elset, elset=m_set-1, internal, instance=Part-1-1, generate
 1, 1, 1
*Elset, elset=m_set-2, internal, instance=Part-1-1, generate
 121, 121, 1
*Elset, elset=m_set-3, internal, instance=Part-1-1, generate
 126, 126, 1
*Elset, elset=m_set-4, internal, instance=Part-1-1, generate
 208, 208, 1
*Elset, elset=m_set-5, internal, instance=Part-1-1, generate
 179, 179, 1
*Elset, elset=m_set-6, internal, instance=Part-1-1, generate
 198, 198, 1
*Elset, elset=m_set-7, internal, instance=Part-1-1, generate
 478, 478, 1
*Elset, elset=m_set-8, internal, instance=Part-1-1, generate
 86, 86, 1
*Elset, elset=m_set-9, internal, instance=Part-1-1, generate
 476, 476, 1
*Elset, elset=m_set-10, internal, instance=Part-1-1, generate
 402, 402, 1
*Elset, elset=m_set-11, internal, instance=Part-1-1, generate
 122, 122, 1
*Elset, elset=m_set-12, internal, instance=Part-1-1, generate
 480, 480, 1
*Elset, elset=m_set-13, internal, instance=Part-1-1, generate
 403, 403, 1
*Elset, elset=m_set-14, internal, instance=Part-1-1, generate
 2, 2, 1
*Elset, elset=m_set-15, internal, instance=Part-1-1, generate
 199, 199, 1
*Elset, elset=m_set-16, internal, instance=Part-1-1, generate
 125, 125, 1
*Elset, elset=m_set-17, internal, instance=Part-1-1, generate
 88, 88, 1
*Elset, elset=m_set-18, internal, instance=Part-1-1, generate
 479, 479, 1
*Elset, elset=m_set-19, internal, instance=Part-1-1, generate
 511, 511, 1
*Elset, elset=m_set-20, internal, instance=Part-1-1, generate
 8, 8, 1
** ... 1460 like lines cut
**
*Surface, type=ELEMENT, name=m_surf-1-S3
m_set-1, S3
*Surface, type=ELEMENT, name=m_surf-2-S1
m_set-2, S1
*Surface, type=ELEMENT, name=m_surf-3-S1
m_set-1, S1
*Surface, type=ELEMENT, name=m_surf-4-S3
m_set-3, S3
*Surface, type=ELEMENT, name=m_surf-5-S3
m_set-2, S3
*Surface, type=ELEMENT, name=m_surf-6-S2
m_set-4, S2
*Surface, type=ELEMENT, name=m_surf-7-S1
m_set-3, S1
*Surface, type=ELEMENT, name=m_surf-8-S2
m_set-5, S2
*Surface, type=ELEMENT, name=m_surf-9-S3
m_set-5, S3
*Surface, type=ELEMENT, name=m_surf-10-S1
m_set-6, S1
*Surface, type=ELEMENT, name=m_surf-11-S2
m_set-6, S2
*Surface, type=ELEMENT, name=m_surf-12-S1
m_set-4, S1
*Surface, type=ELEMENT, name=m_surf-13-S2
m_set-1, S2
*Surface, type=ELEMENT, name=m_surf-14-S2
m_set-7, S2
*Surface, type=ELEMENT, name=m_surf-15-S3
m_set-8, S3
*Surface, type=ELEMENT, name=m_surf-16-S2
m_set-3, S2
*Surface, type=ELEMENT, name=m_surf-17-S2
m_set-8, S2
*Surface, type=ELEMENT, name=m_surf-18-S2
m_set-9, S2
*Surface, type=ELEMENT, name=m_surf-19-S2
m_set-10, S2
*Surface, type=ELEMENT, name=m_surf-20-S1
m_set-9, S1
** ... 4316 like lines cut
**
*Nset, nset=Set-4, instance=Part-1-1
  1,  9, 10, 11, 32, 33, 34, 43, 44, 45, 46, 56, 57
 58, 67, 68, 69, 78, 81, 82, 83, 1339, 1394, 1587, 1397
 1526, 1341, 1396, 1574, 1580, 1582, 1584, 1588, 1590
 1555, 1561, 1560, 1565, 1564, 1569, 1568, 1575, 1481
 1545, 1544, 1550, 1549, 1556, 1375, 1378, 1479, 1542
 1478, 1482, 1370, 1530, 1532, 1472, 1529, 1379, 1471
**
*Nset, nset=Set-5, instance=Part-1-1
  1,  2,  3,  4, 12, 13, 14, 15, 16, 17, 18, 19, 20
 21, 22, 23, 24, 26, 29, 30, 31, 1339, 619, 621, 550
 881, 438, 882, 608, 613, 531, 614, 534, 618, 540, 566
 432, 595, 596, 601, 602, 605, 476, 573, 585, 589, 565
 586, 578, 741, 417, 582, 475, 583, 421, 481, 888, 483
 890, 577, 739
**
*Nset, nset=Set-12, instance=Part-2-1, generate
   1,  221,   44
*Nset, nset=Set-13, instance=Part-2-1, generate
  44,  264,   44
**
**
*Elset, elset=_Surf-1_S1, internal, instance=Part-1-1
 16, 394
*Elset, elset=_Surf-1_S2, internal, instance=Part-1-1
 6, 59, 19, 20, 12, 69, 67, 65, 56, 55, 47, 79, 51, 52, 54
 447, 392, 441, 391, 436, 382, 455, 440, 433, 387, 449, 386, 446, 415, 414
*Surface, type=ELEMENT, name=Surf-1
_Surf-1_S1, S1
_Surf-1_S2, S2
**
*Elset, elset=_Surf-2_S1, internal, instance=Part-2-1, generate
  1,  85,   2
*Surface, type=ELEMENT, name=Surf-2
_Surf-2_S1, S1
**
*Elset, elset=_Surf-3_S1, internal, instance=Part-2-1
 346, 348, 350, 352, 354, 356, 358, 360, 362, 364, 366, 368, 370, 372
 374, 376, 378, 380, 382, 384, 386, 388, 390, 392, 394, 396, 398, 400
 402, 404, 406, 408, 410, 412, 414, 416, 418, 420, 422, 424, 426, 428
 430
*Surface, type=ELEMENT, name=Surf-3
_Surf-3_S1, S1
**
**
*End Assembly
** 
** MATERIALS
** 
*Material, name=Material-1
*Conductivity
8.8443, 273.0
7.0589, 373.0
5.8733, 473.0
5.0287, 573.0
4.3964, 673.0
3.9055, 773.0
3.5135, 873.0
3.194, 973.0
2.9302, 1073.0
2.7116, 1173.0
2.5314, 1273.0
2.3858, 1373.0
2.2722, 1473.0
2.1889, 1573.0
2.1343, 1673.0
2.1071, 1773.0
2.1054, 1873.0
2.1274, 1973.0
2.1709, 2073.0
2.2337, 2173.0
** ... 9 like lines cut
*Density
10360.,
*Elastic
194259465913.625, 0.3007, 273.0
192369582988.625, 0.2997, 373.0
190311752563.625, 0.2988, 473.0
188085974638.625, 0.2979, 573.0
185692249213.625, 0.297, 673.0
183130576288.625, 0.2961, 773.0
180400955863.625, 0.2952, 873.0
177503387938.625, 0.2943, 973.0
174437872513.625, 0.2934, 1073.0
171204409588.625, 0.2925, 1173.0
167802999163.625, 0.2916, 1273.0
164233641238.625, 0.2907, 1373.0
160496335813.625, 0.2898, 1473.0
156591082888.625, 0.2889, 1573.0
152517882463.625, 0.288, 1673.0
148276734538.625, 0.287, 1773.0
143867639113.625, 0.286, 1873.0
139290596188.625, 0.285, 1973.0
134545605763.625, 0.2839, 2073.0
129632667838.625, 0.2828, 2173.0
** ... 9 like lines cut
*Expansion, user
*Specific Heat
310.,
**
*Material, name=Material-2
*Depvar
 14,
*User Material, constants=11
4.92219E+16, 4.92219E+16, 2.072502E+16, 0., 1.e3, 2.e3, 3.25, 8.e-1,
 45000., 2., 0.1
**
*Material, name=Material-2b
*Depvar
 14,
*User Material, constants=11
4.92219E+16, 4.92219E+16, 2.072502E+16, 0., 1.e3, 2.e3, 3.25, 8.e-1,
 45000., 2., 0.1
**
*Material, name=Material-3
*Conductivity
15.,
*Density
7800.,
*Elastic
 2.1e+11, 0.3
*Expansion
 1.6e-05,
*Specific Heat
302.,
**
** INTERACTION PROPERTIES
**
*Surface Interaction, name=IntProp-1
1.,
*GAP CONDUCTANCE,USER
** *Gap Conductance
** 30000000.,  0.
** 30000000.,  1.e-7
** 30000000., 2.e-7
** 30000000., 100.
**
*Surface Interaction, name=IntProp-2
1.,
*Surface Behavior, pressure-overclosure=HARD
** 
*Surface Interaction, name=IntProp-3
1.,
*GAP CONDUCTANCE,USER
**
** INTERACTIONS
**
** Interaction: Int-1
*Contact Pair, interaction=IntProp-1, type=SURFACE TO SURFACE
m_surf-1-S3, m_surf-2-S1
** Interaction: Int-2
*Contact Pair, interaction=IntProp-1, type=SURFACE TO SURFACE
m_surf-3-S1, m_surf-4-S3
** Interaction: Int-3
*Contact Pair, interaction=IntProp-1, type=SURFACE TO SURFACE
m_surf-5-S3, m_surf-6-S2
** Interaction: Int-4
*Contact Pair, interaction=IntProp-1, type=SURFACE TO SURFACE
m_surf-7-S1, m_surf-8-S2
** Interaction: Int-5
*Contact Pair, interaction=IntProp-1, type=SURFACE TO SURFACE
m_surf-9-S3, m_surf-10-S1
** Interaction: Int-6
*Contact Pair, interaction=IntProp-1, type=SURFACE TO SURFACE
m_surf-11-S2, m_surf-12-S1
** Interaction: Int-7
*Contact Pair, interaction=IntProp-1, type=SURFACE TO SURFACE
m_surf-13-S2, m_surf-14-S2
** Interaction: Int-8
*Contact Pair, interaction=IntProp-1, type=SURFACE TO SURFACE
m_surf-15-S3, m_surf-16-S2
** Interaction: Int-9
*Contact Pair, interaction=IntProp-1, type=SURFACE TO SURFACE
m_surf-17-S2, m_surf-18-S2
** Interaction: Int-10
*Contact Pair, interaction=IntProp-1, type=SURFACE TO SURFACE
m_surf-19-S2, m_surf-20-S1
** Interaction: Int-11
*Contact Pair, interaction=IntProp-1, type=SURFACE TO SURFACE
m_surf-21-S1, m_surf-22-S3
** Interaction: Int-12
*Contact Pair, interaction=IntProp-1, type=SURFACE TO SURFACE
m_surf-23-S2, m_surf-24-S1
** Interaction: Int-13
*Contact Pair, interaction=IntProp-1, type=SURFACE TO SURFACE
m_surf-25-S2, m_surf-26-S2
** Interaction: Int-14
*Contact Pair, interaction=IntProp-1, type=SURFACE TO SURFACE
m_surf-27-S2, m_surf-28-S1
** Interaction: Int-15
*Contact Pair, interaction=IntProp-1, type=SURFACE TO SURFACE
m_surf-29-S1, m_surf-30-S3
** Interaction: Int-16
*Contact Pair, interaction=IntProp-1, type=SURFACE TO SURFACE
m_surf-31-S1, m_surf-32-S3
** Interaction: Int-17
*Contact Pair, interaction=IntProp-1, type=SURFACE TO SURFACE
m_surf-33-S3, m_surf-34-S2
** Interaction: Int-18
*Contact Pair, interaction=IntProp-1, type=SURFACE TO SURFACE
m_surf-35-S2, m_surf-36-S1
** Interaction: Int-19
*Contact Pair, interaction=IntProp-1, type=SURFACE TO SURFACE
m_surf-37-S1, m_surf-38-S3
** Interaction: Int-20
*Contact Pair, interaction=IntProp-1, type=SURFACE TO SURFACE
m_surf-39-S2, m_surf-40-S1
** ... 3207 like lines cut
**
**
** Interaction: Int-1090
*Contact Pair, interaction=IntProp-3, type=SURFACE TO SURFACE
Surf-1 , Surf-2
** 
** PREDEFINED FIELDS
** 
** Name: Predefined Field-1   Type: Temperature
*Initial Conditions, type=TEMPERATURE
Set-3, 673.
**
** Name: Predefined Field-1   Type: Temperature
*Initial Conditions, type=TEMPERATURE
Set-8, 673.
**
** ----------------------------------------------------------------
** 
** STEP: Step-1
** 
*Step, name=Step-1, nlgeom=NO, inc=100000
*Coupled Temperature-displacement, creep=none, deltmx=100.
250, 36000., 1e-07, 250.
** 
** BOUNDARY CONDITIONS
** 
** Name: BC-1 Type: Symmetry/Antisymmetry/Encastre
*Boundary
Set-5, XSYMM
** Name: BC-2 Type: Symmetry/Antisymmetry/Encastre
*Boundary
Set-4, YSYMM
**
** Name: BC-3 Type: Symmetry/Antisymmetry/Encastre
*Boundary
Set-12, XSYMM
** Name: BC-4 Type: Symmetry/Antisymmetry/Encastre
*Boundary
Set-13, YSYMM
**
** LOADS
** 
** Name: Load-1   Type: Body heat flux
*Dflux
Set-7, BFNU, 1.
** 
** INTERACTIONS
** 
** 
** Interaction: Int-1
*Sfilm
Surf-3, FNU, 1., 1.
** 
** CONTROLS
** 
*Controls, reset
*Controls, parameters=time incrementation
50, 50, , 70, , , , 30, , , 
** 
** OUTPUT REQUESTS
** 
*Restart, write, frequency=0
** 
** FIELD OUTPUT: F-Output-1
** 
*Output, field
*Node Output
CF, NT, RF, RFL, U
*Element Output, directions=YES
HFL, LE, PE, PEEQ, PEMAG, S, SDV, TEMP
*Contact Output
CDISP, CSTRESS
** 
** HISTORY OUTPUT: H-Output-1
** 
*Output, history, variable=PRESELECT
*Node Output, nset=Set-5
RF1, RF2, U1, U2
*End Step
** ----------------------------------------------------------------
** 
** STEP: Step-2
** 
*Step, name=Step-2, nlgeom=NO, inc=10000
*Coupled Temperature-displacement, creep=none, deltmx=100.
50000., 8.64e6, 1e-07, 50000.
** 
** Name: BC-1 Type: Symmetry/Antisymmetry/Encastre
*Boundary
Set-4, YSYMM
** Name: BC-2 Type: Symmetry/Antisymmetry/Encastre
*Boundary
Set-5, XSYMM
** Name: BC-3 Type: Symmetry/Antisymmetry/Encastre
*Boundary
Set-12, XSYMM
** Name: BC-4 Type: Symmetry/Antisymmetry/Encastre
*Boundary
Set-13, YSYMM
**
** LOADS
** 
** Name: Load-1   Type: Body heat flux
*Dflux
Set-7, BFNU, 1.
**
** INTERACTIONS
** 
** Interaction: Int-1
*Sfilm
Surf-3, FNU, 1., 1.
** 
** OUTPUT REQUESTS
** 
*Restart, write, frequency=0
** 
** FIELD OUTPUT: F-Output-1
** 
*Output, field
*Node Output
CF, NT, RF, RFL, U
*Element Output, directions=YES
HFL, LE, PE, PEEQ, PEMAG, S, SDV, TEMP
*Contact Output
CDISP, CSTRESS
** 
** HISTORY OUTPUT: H-Output-1
** 
*Output, history, variable=PRESELECT
*End Step
